Input_files/6houses_model.glm
////////////////////////////////////////////////////////
// BEGIN
////////////////////////////////////////////////////////
// filename... Input_files/default_model.glm_notrandom.glm
// workdir.... /docker_powernet
// command.... gridlabd Input_files/default_model_modified.glm -D suppress_repeat_messages=FALSE --warn
// created.... Sun Aug 22 19:41:56 2021
// user....... (null)
// host....... ce057e816bb5
// modules.... 5
// classes.... 90
// objects.... 81
// options.... MINIMAL

////////////////////////////////////////////////////////

// CLOCK
clock {
	timezone "UTC0";
	starttime "2016-07-31 12:00:00 UTC";
	stoptime "2016-08-01 00:05:00 UTC";
}

////////////////////////////////////////////////////////
// modules
module climate {
	message_flags "DEBUG|VERBOSE";
}
module generators {
	message_flags "DEBUG|VERBOSE";
	enable_subsecond_models "FALSE";
	deltamode_timestep "+1e+07 ns";
}
module powerflow {
	message_flags "DEBUG|VERBOSE";
	show_matrix_values "FALSE";
	primary_voltage_ratio "+60";
	nominal_frequency "+60";
	require_voltage_control "FALSE";
	geographic_degree "+0";
	fault_impedance "+1e-06+0j";
	ground_impedance "+1e-06+0j";
	warning_underfrequency "+55";
	warning_overfrequency "+65";
	warning_undervoltage "+0.8";
	warning_overvoltage "+1.2";
	warning_voltageangle "+2";
	maximum_voltage_error "+1e-06";
	solver_method "NR";
	NR_matrix_file "";
	NR_matrix_output_interval "NEVER";
	NR_matrix_output_references "FALSE";
	line_capacitance "FALSE";
	line_limits "TRUE";
	lu_solver "";
	NR_iteration_limit "500";
	NR_deltamode_iteration_limit "10";
	NR_superLU_procs "1";
	default_maximum_voltage_error "+1e-06";
	default_maximum_power_error "+0.0001";
	NR_admit_change "FALSE";
	enable_subsecond_models "FALSE";
	all_powerflow_delta "FALSE";
	deltamode_timestep "+1e+07 ns";
	current_frequency "+60 Hz";
	master_frequency_update "FALSE";
	enable_frequency_dependence "FALSE";
	default_resistance "+0.0001";
	enable_inrush "FALSE";
	low_voltage_impedance_level "+0.7";
	enable_mesh_fault_current "FALSE";
	convergence_error_handling "FATAL";
	solver_profile_enable "FALSE";
	solver_profile_filename "solver_nr_profile.csv";
	solver_profile_headers_included "TRUE";
	solver_headers "timestamp,duration[microsec],iteration,bus_count,branch_count,error";
	market_price_name "current_market.clearing_price";
}
module tape {
	gnuplot_path "/usr/bin/gnuplot";
	flush_interval "0";
	csv_data_only "0";
	csv_keep_clean "0";
	delta_mode_needed "NEVER";
}
module residential {
	message_flags "DEBUG|VERBOSE";
	default_line_voltage "+240+0d V";
	default_line_current "+0+0j A";
	default_outdoor_temperature "+74 degF";
	default_humidity "+75 %";
	default_solar "+0 Btu/sf";
	default_etp_iterations "100";
	ANSI_voltage_check "TRUE";
	enable_subsecond_models "FALSE";
	deltamode_timestep "+1e+07 ns";
	all_house_delta "FALSE";
	implicit_enduses "DRYER|CLOTHESWASHER|WATERHEATER|RANGE|REFRIGERATOR|FREEZER|MICROWAVE|DISHWASHER|PLUGS|LIGHTS";
	implicit_enduse_source "EIA2015";
	house_low_temperature_warning "+55 degF";
	house_high_temperature_warning "+95 degF";
	thermostat_control_warning "+4.94066e-324";
	system_dwell_time "+1 s";
	aux_cutin_temperature "+10 degF";
	paneldump_filename "paneldump.csv";
	paneldump_interval "0";
	paneldump_resolution "+0";
}

////////////////////////////////////////////////////////
// classes
class battery {
	char32 charging_type;
	double k;
	char32 est_departure;
	double top_on;
}
class player {
	double value;
}
class house {
	double alpha;
	double beta;
	double gamma_cool;
	double gamma_heat;
	double comf_temperature;
	double T_max;
	double T_min;
}

////////////////////////////////////////////////////////
// objects
object climate.climate {
	name "weather";
	latitude "32N44:0.00";
	longitude "117W10:0.00";
	guid "66D78672AB6B7399600FE751215762F6";
	solar_elevation "-0.681589 rad";
	solar_zenith "+2.25239 rad";
	tmyfile "Input_files/722900TYA.tmy3";
	temperature "+67.4689 degF";
	humidity "+0.862708 pu";
	extraterrestrial_direct_normal "+0 W/sf";
	pressure "+1011 mbar";
	wind_speed "+1.80382 m/s";
	wind_dir "+262.674 rad";
	record.low "+41.002 degF";
	record.high "+87.082 degF";
	record.solar "+96.2667 W/sf";
	rainfall "+0.980969 in/h";
	interpolate "QUADRATIC";
	opq_sky_cov "+0.824306 pu";
}
object tape.player {
	name "player_0";
	guid "4A929C3B540643C465A250D0C146D87";
	property "(undefined)";
	file "Input_files/players/ps_101_2016.player";
	filetype "txt";
	mode "file";
	value "+0.01";
}
object tape.player {
	name "player_1";
	guid "760A899AFC2833945C8EAF0864F8CE88";
	property "(undefined)";
	file "Input_files/players/ps_114_2016.player";
	filetype "txt";
	mode "file";
	value "+0.4";
}
object tape.player {
	name "player_2";
	guid "A83B2D47432D917985A168C50DC74";
	property "(undefined)";
	file "Input_files/players/ps_115_2016.player";
	filetype "txt";
	mode "file";
	value "+0";
}
object tape.player {
	name "player_3";
	guid "115F594FB421C1F26BAAE2D066827C56";
	property "(undefined)";
	file "Input_files/players/ps_1086_2016.player";
	filetype "txt";
	mode "file";
	value "+0.58";
}
object tape.player {
	name "player_4";
	guid "2029E0C271D1BA5648FF7525371CBDF1";
	property "(undefined)";
	file "Input_files/players/ps_1103_2016.player";
	filetype "txt";
	mode "file";
	value "+0";
}
object tape.player {
	name "player_5";
	guid "61AFFAF8ABB4CA831A9A07D343CF3618";
	property "(undefined)";
	file "Input_files/players/ps_1169_2016.player";
	filetype "txt";
	mode "file";
	value "+0.15";
}
object powerflow.meter {
	name "node_149";
	guid "4C1FACE516B4B77077066BE8FF5CA2DF";
	measured_real_energy "+34171.2 Wh";
	measured_reactive_energy "+41136.4 VAh";
	measured_energy_delta_timestep "-1 s";
	measured_power "+2574.44+22.7825d VA";
	measured_power_A "+871.537+22.8296d VA";
	measured_power_B "+851.453+22.7585d VA";
	measured_power_C "+851.454+22.7585d VA";
	measured_demand "+10675.7 W";
	measured_real_power "+2373.59 W";
	measured_reactive_power "+996.914 VAr";
	measured_voltage_A "+24941+0d V";
	measured_voltage_B "+24941-120d V";
	measured_voltage_C "+24941+120d V";
	measured_voltage_AB "+43199.1+30d V";
	measured_voltage_CA "+43199.1+150d V";
	measured_current_A "+0.0322066-0.013558j A";
	measured_current_B "-0.0271775-0.0206599j A";
	measured_current_C "-0.00430326+0.0338664j A";
	bill_day "15";
	// class.parent = powerflow.node
	bustype "SWING";
	busflags "HASSOURCE";
	maximum_voltage_error "+0.024941 V";
	voltage_A "+24941+0d V";
	voltage_B "+24941-120d V";
	voltage_C "+24941+120d V";
	voltage_AB "+43199.1+30d V";
	voltage_CA "+43199.1+150d V";
	frequency_measure_type "NONE";
	sfm_Tf "+0.01 s";
	pll_Kp "+10 pu";
	pll_Ki "+100 pu";
	measured_frequency_A "+60 Hz";
	measured_frequency_B "+60 Hz";
	measured_frequency_C "+60 Hz";
	measured_frequency "+60 Hz";
	service_status "IN_SERVICE";
	service_status_double "-1";
	previous_uptime "-1 min";
	current_uptime "+725 min";
	GFA_freq_low_trip "+59.5 Hz";
	GFA_freq_high_trip "+60.5 Hz";
	GFA_volt_low_trip "+0.8 pu";
	GFA_volt_high_trip "+1.2 pu";
	GFA_reconnect_time "+300 s";
	GFA_freq_disconnect_time "+0.2 s";
	GFA_volt_disconnect_time "+0.2 s";
	GFA_status "TRUE";
	// class.parent = powerflow.powerflow_object
	phases "ABCN";
	nominal_voltage "+24941 V";
}
object tape.recorder {
	parent "node_149";
	name "recorder:8";
	guid "52513D0F7544E61D3317F0437CBBDEA0";
	file "Benchmarking/substation.csv";
	filetype "txt";
	mode "file";
	flush "-1";
	interval "+300 s";
	property "measured_real_power";
}
object powerflow.meter {
	name "feeder_node";
	guid "4984B509F6856BB96A67910E9ED9266";
	measured_real_energy "+34171.3 Wh";
	measured_reactive_energy "+41136.4 VAh";
	measured_energy_delta_timestep "-1 s";
	measured_power "+2574.44+22.7826d VA";
	measured_power_A "+871.536+22.8296d VA";
	measured_power_B "+851.453+22.7585d VA";
	measured_power_C "+851.453+22.7585d VA";
	measured_demand "+10675.7 W";
	measured_real_power "+2373.59 W";
	measured_reactive_power "+996.914 VAr";
	measured_voltage_A "+22446.9+3.8452e-09d V";
	measured_voltage_B "+22446.9-120d V";
	measured_voltage_C "+22446.9+120d V";
	measured_voltage_AB "+38879.2+30d V";
	measured_voltage_BC "+38879.2-90d V";
	measured_voltage_CA "+38879.2+150d V";
	measured_current_A "+0.035785-0.0150644j A";
	measured_current_B "-0.0301972-0.0229555j A";
	measured_current_C "-0.00478138+0.0376293j A";
	bill_day "15";
	// class.parent = powerflow.node
	busflags "HASSOURCE";
	maximum_voltage_error "+0.024941 V";
	voltage_A "+22446.9+3.8452e-09d V";
	voltage_B "+22446.9-120d V";
	voltage_C "+22446.9+120d V";
	voltage_AB "+38879.2+30d V";
	voltage_BC "+38879.2-90d V";
	voltage_CA "+38879.2+150d V";
	frequency_measure_type "NONE";
	sfm_Tf "+0.01 s";
	pll_Kp "+10 pu";
	pll_Ki "+100 pu";
	measured_frequency_A "+60 Hz";
	measured_frequency_B "+60 Hz";
	measured_frequency_C "+60 Hz";
	measured_frequency "+60 Hz";
	service_status "IN_SERVICE";
	service_status_double "-1";
	previous_uptime "-1 min";
	current_uptime "+725 min";
	GFA_freq_low_trip "+59.5 Hz";
	GFA_freq_high_trip "+60.5 Hz";
	GFA_volt_low_trip "+0.8 pu";
	GFA_volt_high_trip "+1.2 pu";
	GFA_reconnect_time "+300 s";
	GFA_freq_disconnect_time "+0.2 s";
	GFA_volt_disconnect_time "+0.2 s";
	GFA_status "TRUE";
	// class.parent = powerflow.powerflow_object
	phases "ABCN";
	nominal_voltage "+24941 V";
}
object powerflow.overhead_line {
	name "main_line";
	guid "691E26FBBD2F30137358EB51D3249B93";
	// class.parent = powerflow.line
	configuration "lc301";
	length "+15840 ft";
	// class.parent = powerflow.link
	status "CLOSED";
	from "feeder_node";
	to "main_node";
	power_in "+2574.44+22.7826d VA";
	power_out "+2574.43+22.7824d VA";
	power_out_real "+2373.58 W";
	power_losses "+0.00918219+63.9929d VA";
	power_in_A "+871.536+22.8296d VA";
	power_in_B "+851.453+22.7585d VA";
	power_in_C "+851.453+22.7585d VA";
	power_out_A "+871.533+22.8295d VA";
	power_out_B "+851.451+22.7584d VA";
	power_out_C "+851.451+22.7584d VA";
	power_losses_A "+0.00343771+57.7418d VA";
	power_losses_B "+0.0026996+68.4384d VA";
	power_losses_C "+0.00307787+67.0674d VA";
	current_out_A "+0.035785-0.0150644j A";
	current_out_B "-0.0301972-0.0229555j A";
	current_out_C "-0.00478138+0.0376293j A";
	current_in_A "+0.035785-0.0150644j A";
	current_in_B "-0.0301972-0.0229555j A";
	current_in_C "-0.00478138+0.0376293j A";
	flow_direction "CF|BF|AF";
	continuous_rating "+1000 A";
	emergency_rating "+2000 A";
	inrush_convergence_value "+0.0001 V";
	// class.parent = powerflow.powerflow_object
	phases "ABCN";
	nominal_voltage "+24941 V";
}
object powerflow.regulator {
	name "main_reg";
	guid "546F171C4E9C0AA11D57CC4FEDB28694";
	configuration "rc502";
	tap_A "-16";
	tap_B "-16";
	tap_C "-16";
	tap_A_change_count "+15";
	tap_B_change_count "+16";
	tap_C_change_count "+16";
	sense_node "main_node";
	regulator_resistance "+0.0001 Ohm";
	// class.parent = powerflow.link
	status "CLOSED";
	from "node_149";
	to "feeder_node";
	power_in "+2574.44+22.7825d VA";
	power_out "+2574.44+22.7825d VA";
	power_out_real "+2373.59 W";
	power_losses "+4.38516e-07-7.42706e-06d VA";
	power_in_A "+871.537+22.8296d VA";
	power_in_B "+851.453+22.7585d VA";
	power_in_C "+851.454+22.7585d VA";
	power_out_A "+871.537+22.8296d VA";
	power_out_B "+851.453+22.7585d VA";
	power_out_C "+851.454+22.7585d VA";
	power_losses_A "+1.50751e-07+0d VA";
	power_losses_B "+1.43883e-07-4.52715e-05d VA";
	power_losses_C "+1.43883e-07+2.26357e-05d VA";
	current_out_A "+0.0357851-0.0150644j A";
	current_out_B "-0.0301972-0.0229555i A";
	current_out_C "-0.0047814+0.0376293i A";
	current_in_A "+0.0322066-0.013558j A";
	current_in_B "-0.0271775-0.0206599j A";
	current_in_C "-0.00430326+0.0338664j A";
	flow_direction "CN|BN|AN";
	continuous_rating "+1000 A";
	emergency_rating "+2000 A";
	inrush_convergence_value "+0.0001 V";
	// class.parent = powerflow.powerflow_object
	phases "ABCN";
	nominal_voltage "+24941 V";
}
object powerflow.regulator_configuration {
	name "rc502";
	guid "1E6E6931A9D3018B4616F52B2AF6BF0C";
	connect_type "WYE_WYE";
	band_center "+2400 V";
	band_width "+40 V";
	time_delay "+30 s";
	raise_taps "16";
	lower_taps "16";
	current_transducer_ratio "+50 pu";
	power_transducer_ratio "+20 pu";
	compensator_r_setting_A "+0.4 V";
	compensator_x_setting_A "+0.4 V";
	CT_phase "A";
	PT_phase "A";
	regulation "+0.1";
	control_level "INDIVIDUAL";
	Control "OUTPUT_VOLTAGE";
	Type "A";
	tap_pos_A "-1";
}
object powerflow.overhead_line_conductor {
	name "olc301c";
	guid "37793210C661700719103A51D387CAEC";
	geometric_mean_radius "+0.0244 ft";
	resistance "+0.306 Ohm/mile";
	diameter "+0.721 in";
	rating.summer.continuous "+1000 A";
	rating.summer.emergency "+2000 A";
	rating.winter.continuous "+1000 A";
	rating.winter.emergency "+2000 A";
}
object powerflow.overhead_line_conductor {
	name "olc301n";
	guid "3517CD203B8C51357A88E7026A0B7268";
	geometric_mean_radius "+0.00814 ft";
	resistance "+0.592 Ohm/mile";
	diameter "+0.563 in";
	rating.summer.continuous "+1000 A";
	rating.summer.emergency "+2000 A";
	rating.winter.continuous "+1000 A";
	rating.winter.emergency "+2000 A";
}
object powerflow.line_configuration {
	name "lc301";
	guid "63B995D6CF2C378B849ECC8164FF53C";
	conductor_A "olc301c";
	conductor_B "olc301c";
	conductor_C "olc301c";
	conductor_N "olc301n";
	spacing "ls500301";
	rating.summer.continuous "+1000 A";
	rating.summer.emergency "+2000 A";
	rating.winter.continuous "+1000 A";
	rating.winter.emergency "+2000 A";
}
object powerflow.line_spacing {
	name "ls500301";
	guid "1274A539ACC015AA7C67A706583D483A";
	distance_AB "+2.5 ft";
	distance_BC "+4.5 ft";
	distance_AC "+7 ft";
	distance_AN "+5.65685 ft";
	distance_BN "+4.272 ft";
	distance_CN "+5 ft";
	distance_AE "+28 ft";
	distance_BE "+28 ft";
	distance_CE "+28 ft";
	distance_NE "+24 ft";
}
object powerflow.meter {
	name "main_node";
	guid "8C7F35E0464F11F21FB1266C2E5228C";
	measured_real_energy "+34170.9 Wh";
	measured_reactive_energy "+41135.5 VAh";
	measured_energy_delta_timestep "-1 s";
	measured_power "+2574.43+22.7824d VA";
	measured_power_A "+871.533+22.8295d VA";
	measured_power_B "+851.451+22.7584d VA";
	measured_power_C "+851.451+22.7584d VA";
	measured_demand "+10675.5 W";
	measured_real_power "+2373.58 W";
	measured_reactive_power "+996.906 VAr";
	measured_voltage_A "+22446.8-0.00012934d V";
	measured_voltage_B "+22446.9-120d V";
	measured_voltage_C "+22446.8+120d V";
	measured_voltage_AB "+38879.1+29.9999d V";
	measured_voltage_BC "+38879.1-90.0001d V";
	measured_voltage_CA "+38879.1+150d V";
	measured_current_A "+0.035785-0.0150644j A";
	measured_current_B "-0.0301972-0.0229555j A";
	measured_current_C "-0.00478138+0.0376293j A";
	bill_day "15";
	// class.parent = powerflow.node
	busflags "HASSOURCE";
	maximum_voltage_error "+0.024941 V";
	voltage_A "+22446.8-0.00012934d V";
	voltage_B "+22446.9-120d V";
	voltage_C "+22446.8+120d V";
	voltage_AB "+38879.1+29.9999d V";
	voltage_BC "+38879.1-90.0001d V";
	voltage_CA "+38879.1+150d V";
	frequency_measure_type "NONE";
	sfm_Tf "+0.01 s";
	pll_Kp "+10 pu";
	pll_Ki "+100 pu";
	measured_frequency_A "+60 Hz";
	measured_frequency_B "+60 Hz";
	measured_frequency_C "+60 Hz";
	measured_frequency "+60 Hz";
	service_status "IN_SERVICE";
	service_status_double "-1";
	previous_uptime "-1 min";
	current_uptime "+725 min";
	GFA_freq_low_trip "+59.5 Hz";
	GFA_freq_high_trip "+60.5 Hz";
	GFA_volt_low_trip "+0.8 pu";
	GFA_volt_high_trip "+1.2 pu";
	GFA_reconnect_time "+300 s";
	GFA_freq_disconnect_time "+0.2 s";
	GFA_volt_disconnect_time "+0.2 s";
	GFA_status "TRUE";
	// class.parent = powerflow.powerflow_object
	phases "ABCN";
	nominal_voltage "+24941 V";
}
object powerflow.meter {
	parent "main_node";
	name "main_node_A";
	guid "165B3CEBD1D42319BEA58677F718E9F";
	measured_real_energy "+13606.8 Wh";
	measured_reactive_energy "+14133 VAh";
	measured_energy_delta_timestep "-1 s";
	measured_power "+871.533+22.8295d VA";
	measured_power_A "+871.533+22.8295d VA";
	measured_demand "+6514.92 W";
	measured_real_power "+803.26 W";
	measured_reactive_power "+338.146 VAr";
	measured_voltage_A "+22446.8-0.00012934d V";
	measured_voltage_B "+22446.9-120d V";
	measured_voltage_C "+22446.8+120d V";
	measured_voltage_AB "+38879.1+29.9999d V";
	measured_voltage_BC "+38879.1-90.0001d V";
	measured_voltage_CA "+38879.1+150d V";
	measured_current_A "+0.035785-0.0150644j A";
	bill_day "15";
	// class.parent = powerflow.node
	busflags "HASSOURCE";
	maximum_voltage_error "+0.024941 V";
	voltage_A "+22446.8-0.00012934d V";
	voltage_B "+22446.9-120d V";
	voltage_C "+22446.8+120d V";
	voltage_AB "+38879.1+29.9999d V";
	voltage_BC "+38879.1-90.0001d V";
	voltage_CA "+38879.1+150d V";
	frequency_measure_type "NONE";
	sfm_Tf "+0.01 s";
	pll_Kp "+10 pu";
	pll_Ki "+100 pu";
	measured_frequency_A "+60 Hz";
	measured_frequency_B "+60 Hz";
	measured_frequency_C "+60 Hz";
	measured_frequency "+60 Hz";
	service_status "IN_SERVICE";
	service_status_double "-1";
	previous_uptime "-1 min";
	current_uptime "+725 min";
	GFA_freq_low_trip "+59.5 Hz";
	GFA_freq_high_trip "+60.5 Hz";
	GFA_volt_low_trip "+0.8 pu";
	GFA_volt_high_trip "+1.2 pu";
	GFA_reconnect_time "+300 s";
	GFA_freq_disconnect_time "+0.2 s";
	GFA_volt_disconnect_time "+0.2 s";
	GFA_status "TRUE";
	topological_parent "main_node";
	// class.parent = powerflow.powerflow_object
	phases "AN";
	nominal_voltage "+24941 V";
}
object powerflow.meter {
	parent "main_node";
	name "main_node_B";
	guid "2CBC0C978B6913603D9E8ED7582FB45D";
	measured_real_energy "+9568.92 Wh";
	measured_reactive_energy "+13500.2 VAh";
	measured_energy_delta_timestep "-1 s";
	measured_power "+851.451+22.7584d VA";
	measured_power_B "+851.451+22.7584d VA";
	measured_demand "+5678.38 W";
	measured_real_power "+785.161 W";
	measured_reactive_power "+329.38 VAr";
	measured_voltage_A "+22446.8-0.00012934d V";
	measured_voltage_B "+22446.9-120d V";
	measured_voltage_C "+22446.8+120d V";
	measured_voltage_AB "+38879.1+29.9999d V";
	measured_voltage_BC "+38879.1-90.0001d V";
	measured_voltage_CA "+38879.1+150d V";
	measured_current_B "-0.0301972-0.0229555j A";
	bill_day "15";
	// class.parent = powerflow.node
	busflags "HASSOURCE";
	maximum_voltage_error "+0.024941 V";
	voltage_A "+22446.8-0.00012934d V";
	voltage_B "+22446.9-120d V";
	voltage_C "+22446.8+120d V";
	voltage_AB "+38879.1+29.9999d V";
	voltage_BC "+38879.1-90.0001d V";
	voltage_CA "+38879.1+150d V";
	frequency_measure_type "NONE";
	sfm_Tf "+0.01 s";
	pll_Kp "+10 pu";
	pll_Ki "+100 pu";
	measured_frequency_A "+60 Hz";
	measured_frequency_B "+60 Hz";
	measured_frequency_C "+60 Hz";
	measured_frequency "+60 Hz";
	service_status "IN_SERVICE";
	service_status_double "-1";
	previous_uptime "-1 min";
	current_uptime "+725 min";
	GFA_freq_low_trip "+59.5 Hz";
	GFA_freq_high_trip "+60.5 Hz";
	GFA_volt_low_trip "+0.8 pu";
	GFA_volt_high_trip "+1.2 pu";
	GFA_reconnect_time "+300 s";
	GFA_freq_disconnect_time "+0.2 s";
	GFA_volt_disconnect_time "+0.2 s";
	GFA_status "TRUE";
	topological_parent "main_node";
	// class.parent = powerflow.powerflow_object
	phases "BN";
	nominal_voltage "+24941 V";
}
object powerflow.meter {
	parent "main_node";
	name "main_node_C";
	guid "732448A4791F6C3375CA8B540B88BC4A";
	measured_real_energy "+10995.2 Wh";
	measured_reactive_energy "+13502.3 VAh";
	measured_energy_delta_timestep "-1 s";
	measured_power "+851.451+22.7584d VA";
	measured_power_C "+851.451+22.7584d VA";
	measured_demand "+4863.98 W";
	measured_real_power "+785.161 W";
	measured_reactive_power "+329.38 VAr";
	measured_voltage_A "+22446.8-0.00012934d V";
	measured_voltage_B "+22446.9-120d V";
	measured_voltage_C "+22446.8+120d V";
	measured_voltage_AB "+38879.1+29.9999d V";
	measured_voltage_BC "+38879.1-90.0001d V";
	measured_voltage_CA "+38879.1+150d V";
	measured_current_C "-0.00478138+0.0376293j A";
	bill_day "15";
	// class.parent = powerflow.node
	busflags "HASSOURCE";
	maximum_voltage_error "+0.024941 V";
	voltage_A "+22446.8-0.00012934d V";
	voltage_B "+22446.9-120d V";
	voltage_C "+22446.8+120d V";
	voltage_AB "+38879.1+29.9999d V";
	voltage_BC "+38879.1-90.0001d V";
	voltage_CA "+38879.1+150d V";
	frequency_measure_type "NONE";
	sfm_Tf "+0.01 s";
	pll_Kp "+10 pu";
	pll_Ki "+100 pu";
	measured_frequency_A "+60 Hz";
	measured_frequency_B "+60 Hz";
	measured_frequency_C "+60 Hz";
	measured_frequency "+60 Hz";
	service_status "IN_SERVICE";
	service_status_double "-1";
	previous_uptime "-1 min";
	current_uptime "+725 min";
	GFA_freq_low_trip "+59.5 Hz";
	GFA_freq_high_trip "+60.5 Hz";
	GFA_volt_low_trip "+0.8 pu";
	GFA_volt_high_trip "+1.2 pu";
	GFA_reconnect_time "+300 s";
	GFA_freq_disconnect_time "+0.2 s";
	GFA_volt_disconnect_time "+0.2 s";
	GFA_status "TRUE";
	topological_parent "main_node";
	// class.parent = powerflow.powerflow_object
	phases "CN";
	nominal_voltage "+24941 V";
}
object powerflow.transformer_configuration {
	name "xfmr_config_A";
	guid "4430A46F7392C8804B29AACFA70D4A97";
	connect_type "SINGLE_PHASE_CENTER_TAPPED";
	install_type "POLETOP";
	primary_voltage "+24941 V";
	secondary_voltage "+120 V";
	power_rating "+1000 kVA";
	powerA_rating "+1000 kVA";
	resistance "+0.006 pu*Ohm";
	reactance "+0.0136 pu*Ohm";
	impedance "+0.006+0.0136j pu*Ohm";
	reactance_resistance_ratio "+4.5";
}
object powerflow.transformer_configuration {
	name "xfmr_config_B";
	guid "5A855D9CB02D8D74B3E6D01AA67FBF8";
	connect_type "SINGLE_PHASE_CENTER_TAPPED";
	install_type "POLETOP";
	primary_voltage "+24941 V";
	secondary_voltage "+120 V";
	power_rating "+1000 kVA";
	powerB_rating "+1000 kVA";
	resistance "+0.006 pu*Ohm";
	reactance "+0.0136 pu*Ohm";
	impedance "+0.006+0.0136j pu*Ohm";
	reactance_resistance_ratio "+4.5";
}
object powerflow.transformer_configuration {
	name "xfmr_config_C";
	guid "4A3A6ED81649B7BF4B14C3FAB2595319";
	connect_type "SINGLE_PHASE_CENTER_TAPPED";
	install_type "POLETOP";
	primary_voltage "+24941 V";
	secondary_voltage "+120 V";
	power_rating "+1000 kVA";
	powerC_rating "+1000 kVA";
	resistance "+0.006 pu*Ohm";
	reactance "+0.0136 pu*Ohm";
	impedance "+0.006+0.0136j pu*Ohm";
	reactance_resistance_ratio "+4.5";
}
object powerflow.transformer {
	name "xfrm_1A";
	guid "2D3E3AF4A9E34B1E19FFF7996BDE5E93";
	configuration "xfmr_config_A";
	// class.parent = powerflow.link
	status "CLOSED";
	from "main_node_A";
	to "node_1A";
	power_in "+871.533+22.8295d VA";
	power_out "+871.522+22.8288d VA";
	power_out_real "+803.254 W";
	power_losses "+0.0154001+64.0207d VA";
	power_in_A "+871.533+22.8295d VA";
	power_out_A "+296.898+16.4356d VA";
	power_out_B "+518.487+254.129j VA";
	power_losses_A "+0.0154001+64.0207d VA";
	current_out_A "+2.7491-16.4363d A";
	current_out_B "+5.34654+153.888d A";
	current_out_C "+2.67673-36.0517d A";
	current_in_A "+0.0388266-22.8296d A";
	flow_direction "CN|BR|AF";
	continuous_rating "+1000 A";
	emergency_rating "+1000 A";
	inrush_convergence_value "+0.0001 V";
	// class.parent = powerflow.powerflow_object
	phases "AS";
	nominal_voltage "+24941 V";
}
object powerflow.triplex_node {
	name "node_1A";
	guid "587300C576EBC72C4658FD0B8EFD4E73";
	busflags "HASSOURCE";
	maximum_voltage_error "+0.00012 V";
	voltage_1 "+107.999-0.00074971d V";
	voltage_2 "+107.998-0.000767443d V";
	voltage_12 "+215.997-0.000758577d V";
	voltage_1N "+107.999-0.00074971d V";
	voltage_2N "+107.998-0.000767443d V";
	power_12 "+2.00107e-12+0i VA";
	power_12_real "+2.00107e-12 W";
	house_present "TRUE";
	GFA_freq_low_trip "+59.5 Hz";
	GFA_freq_high_trip "+60.5 Hz";
	GFA_volt_low_trip "+0.8 pu";
	GFA_volt_high_trip "+1.2 pu";
	GFA_reconnect_time "+300 s";
	GFA_freq_disconnect_time "+0.2 s";
	GFA_volt_disconnect_time "+0.2 s";
	GFA_status "TRUE";
	service_status "IN_SERVICE";
	service_status_double "-1";
	previous_uptime "-1 min";
	current_uptime "+725 min";
	frequency_measure_type "NONE";
	sfm_Tf "+0.01 s";
	pll_Kp "+10 pu";
	pll_Ki "+100 pu";
	measured_frequency_1 "+60 Hz";
	measured_frequency_2 "+60 Hz";
	measured_frequency_12 "+60 Hz";
	measured_frequency "+60 Hz";
	// class.parent = powerflow.powerflow_object
	phases "AS";
	nominal_voltage "+120 V";
}
object powerflow.triplex_meter {
	parent "node_1A";
	name "meter_1";
	guid "23BF876B121999C72444224FA1DEDB73";
	measured_real_energy "+8022.89 Wh";
	measured_reactive_energy "+7149.94 VAh";
	measured_energy_delta_timestep "-1 s";
	measured_power "+435.761+22.8288d VA";
	indiv_measured_power_1 "+148.449+16.4356d VA";
	indiv_measured_power_2 "+259.243+127.065j VA";
	measured_demand "+4541.89 W";
	measured_real_power "+401.627 W";
	measured_reactive_power "+169.066 VAr";
	measured_voltage_1 "+107.999-0.00074971d V";
	measured_voltage_2 "+107.998-0.000767443d V";
	measured_voltage_12 "+215.997-0.000758577d V";
	measured_current_1 "+1.31838-0.388928j A";
	measured_current_2 "-2.40043+1.17657j A";
	measured_current_N "+1.08205-0.787647j A";
	bill_day "15";
	// class.parent = powerflow.triplex_node
	busflags "HASSOURCE";
	maximum_voltage_error "+0.00012 V";
	voltage_1 "+107.999-0.00074971d V";
	voltage_2 "+107.998-0.000767443d V";
	voltage_12 "+215.997-0.000758577d V";
	voltage_1N "+107.999-0.00074971d V";
	voltage_2N "+107.998-0.000767443d V";
	power_12 "-6.25278e-13+0i VA";
	power_12_real "-6.25278e-13 W";
	house_present "TRUE";
	GFA_freq_low_trip "+59.5 Hz";
	GFA_freq_high_trip "+60.5 Hz";
	GFA_volt_low_trip "+0.8 pu";
	GFA_volt_high_trip "+1.2 pu";
	GFA_reconnect_time "+300 s";
	GFA_freq_disconnect_time "+0.2 s";
	GFA_volt_disconnect_time "+0.2 s";
	GFA_status "TRUE";
	service_status "IN_SERVICE";
	service_status_double "-1";
	previous_uptime "-1 min";
	current_uptime "+725 min";
	topological_parent "node_1A";
	frequency_measure_type "NONE";
	sfm_Tf "+0.01 s";
	pll_Kp "+10 pu";
	pll_Ki "+100 pu";
	measured_frequency_1 "+60 Hz";
	measured_frequency_2 "+60 Hz";
	measured_frequency_12 "+60 Hz";
	measured_frequency "+60 Hz";
	// class.parent = powerflow.powerflow_object
	phases "AS";
	nominal_voltage "+120 V";
}
object residential.house {
	parent "meter_1";
	name "house_1";
	guid "3EF2C020A2D1EF38466DEDB043CECCA6";
	weather "weather";
	floor_area "+1308.78 sf";
	gross_wall_area "+1181.54 sf";
	ceiling_height "+8 ft";
	aspect_ratio "+1.5";
	envelope_UA "+250.768 Btu/degF/h";
	window_wall_ratio "+0.15";
	number_of_doors "+4";
	exterior_wall_fraction "+1";
	interior_exterior_wall_ratio "+1.5";
	exterior_ceiling_fraction "+1";
	exterior_floor_fraction "+1";
	window_shading "+0.67";
	window_exterior_transmission_coefficient "+0.6";
	airchange_per_hour "+0.5 unit/h";
	airchange_UA "+92.4248 Btu/degF/h";
	UA "+343.193 Btu/degF/h";
	internal_gain "+1463.3 Btu/h";
	include_solar_quadrant "W|S|E|N";
	use_latent_heat "TRUE";
	include_fan_heatgain "TRUE";
	thermostat_deadband "+2 degF";
	thermostat_cycle_time "120";
	thermostat_off_cycle_time "-1";
	thermostat_on_cycle_time "-1";
	heating_setpoint "+65 degF";
	cooling_setpoint "+76 degF";
	design_heating_setpoint "+70 degF";
	design_cooling_setpoint "+75 degF";
	window_low_temperature_cutoff "+60 degF";
	window_high_temperature_cutoff "+80 degF";
	window_constant_coefficient "+1";
	window_temperature_delta "+5";
	design_heating_capacity "+30000 Btu/h";
	design_cooling_capacity "+30000 Btu/h";
	cooling_design_temperature "+87.082 degF";
	heating_design_temperature "+41.002 degF";
	design_peak_solar "+195 Btu/h/sf";
	design_internal_gains "+3986.63 W/sf";
	mass_solar_gain_fraction "+0.5 pu";
	mass_internal_gain_fraction "+0.5 pu";
	auxiliary_heat_capacity "+10000 Btu/h";
	aux_heat_deadband "+2 degF";
	aux_heat_temperature_lockout "+10 degF";
	aux_heat_time_delay "+300 s";
	cooling_supply_air_temp "+50 degF";
	heating_supply_air_temp "+150 degF";
	duct_pressure_drop "+0.5 inH2O";
	fan_design_power "+211.847 W";
	fan_design_airflow "+871.418 cfm";
	fan_impedance_fraction "+0.2534 pu";
	fan_power_fraction "+0.0135 pu";
	fan_current_fraction "+0.7332 pu";
	fan_power_factor "+0.96 pu";
	heating_COP "+2.5 pu";
	cooling_COP "+3.5 Btu/kWh";
	air_temperature "+75.6574 degF";
	outdoor_temperature "+67.4689 degF";
	outdoor_rh "+86.2708 %";
	mass_heat_capacity "+2247.87 Btu/degF";
	mass_heat_coeff "+5850.81 Btu/degF/h";
	mass_temperature "+75.9613 degF";
	air_volume "+10470.3 cf";
	air_mass "+769.565 lb";
	air_heat_capacity "+554.549 Btu/degF";
	latent_load_fraction "+0.3 pu";
	total_thermal_mass_per_floor_area "+2 Btu/degF/sf";
	interior_surface_heat_transfer_coeff "+1.46 Btu/h/degF/sf";
	number_of_stories "+1";
	thermostat_mode "AUTO";
	auxiliary_strategy "DEADBAND";
	system_mode "OFF";
	last_system_mode "OFF";
	heating_system_type "HEAT_PUMP";
	cooling_system_type "HEAT_PUMP";
	auxiliary_system_type "ELECTRIC";
	fan_type "ONE_SPEED";
	thermal_integrity_level "GOOD";
	glass_type "LOW_E_GLASS";
	window_frame "THERMAL_BREAK";
	glazing_treatment "CLEAR";
	glazing_layers "TWO";
	motor_efficiency "AVERAGE";
	last_mode_timer "21600";
	hvac_motor_efficiency "+1 unit";
	hvac_motor_loss_power_factor "+0.125 unit";
	Rroof "+30 degF*sf*h/Btu";
	Rwall "+19 degF*sf*h/Btu";
	Rfloor "+22 degF*sf*h/Btu";
	Rwindows "+2.12766 degF*sf*h/Btu";
	Rdoors "+5 degF*sf*h/Btu";
	hvac_breaker_rating "+200 A";
	hvac_power_factor "+0.75 unit";
	last_cooling_load "+2.20984 kW";
	total_load "+0.453358 kW";
	panel "power_factor: 0; "power.real": 0.323358; "power.imag": 0.146283";
	panel.energy "+12.7864+3.79321i kVAh";
	panel.power "+0.418611+0.174066j kVA";
	panel.peak_demand "+0+0i kVA";
	panel.heatgain "+1463.3 Btu/h";
	panel.cumulative_heatgain "-12129.7 Btu";
	panel.heatgain_fraction "+0 pu";
	panel.current_fraction "+0 pu";
	panel.impedance_fraction "+0 pu";
	panel.power_fraction "+0 pu";
	panel.power_factor "+0";
	panel.constant_power "+0.323358+0.146283j kVA";
	panel.constant_current "+0.0124025+0.00310837j kVA";
	panel.constant_admittance "+0.0828503+0.0246747j kVA";
	panel.voltage_factor "+0 pu";
	panel.breaker_amps "+0 A";
	panel.configuration "IS110";
	design_internal_gain_density "+0.6 W/sf";
	compressor_count "11";
	hvac_last_on "2016-07-31 18:30:00 UTC";
	hvac_last_off "2016-07-31 18:35:00 UTC";
	hvac_period_length "+45 s";
	hvac_duty_cycle "+0.111111";
	gas_enduses "WATERHEATER|RANGE|DRYER";
	alpha "+0.000504654";
	beta "+0.896422";
	gamma_cool "+5.04219";
	gamma_heat "+7.90211";
	comf_temperature "+73.5945";
	T_max "+72";
	T_min "+60";
	// class.parent = residential.residential_enduse
	shape "type: unknown";
	load "impedance_fraction: 0.200000; power_fraction: 0.800000; power_factor: 0.75; "power.real": 0";
	energy "+4.13926+0i kVAh";
	power "+0+0j kVA";
	peak_demand "+0+0i kVA";
	heatgain "+0 Btu/h";
	cumulative_heatgain "-39272 Btu";
	heatgain_fraction "+0 pu";
	current_fraction "+0 pu";
	impedance_fraction "+0.2 pu";
	power_fraction "+0.8 pu";
	power_factor "+0.75";
	constant_power "+0+0j kVA";
	constant_current "+0+0j kVA";
	constant_admittance "+0+0j kVA";
	voltage_factor "+0.899987 pu";
	breaker_amps "+200 A";
	configuration "IS220";
}
object residential.ZIPload {
	parent "house_1";
	name "zip_GLD_1";
	guid "5582F3A87A0961CB18C61151C03D6A07";
	base_power "+0.01 kW";
	power_pf "+0.9";
	current_pf "+0.9";
	impedance_pf "+0.9";
	breaker_val "+1000 A";
	actual_power "+0.00904987+0.00438305j kVA";
	multiplier "+1";
	rate_of_cooling "-1 K/h";
	rate_of_heating "-1 K/h";
	phi "+0.2";
	demand_rate "+0.2 1/h";
	duty_cycle "-1 pu";
	recovery_duty_cycle "-1 pu";
	// class.parent = residential.residential_enduse
	shape "type: unknown";
	load "impedance_fraction: 0.500000; power_fraction: 0.500000; power_factor: 0.9; "power.real": 0.005; "power.imag": 0.002422";
	energy "+1.89+0.915369i kVAh";
	power "+0.01+0.00484322j kVA";
	peak_demand "+0+0i kVA";
	heatgain "+0 Btu/h";
	cumulative_heatgain "+0 Btu";
	heatgain_fraction "+0 pu";
	current_fraction "+0 pu";
	impedance_fraction "+0.5 pu";
	power_fraction "+0.5 pu";
	power_factor "+0.9";
	constant_power "+0.005+0.00242161j kVA";
	constant_current "+0+0j kVA";
	constant_admittance "+0.005+0.00242161j kVA";
	voltage_factor "+0.899985 pu";
	breaker_amps "+1000 A";
	configuration "IS110";
	power_state "UNKNOWN";
}
object generators.inverter {
	parent "meter_1";
	name "PV_inverter_1";
	guid "1C4FD3DD1165EEA24D4A529AA9B61CCA";
	inverter_type "FOUR_QUADRANT";
	four_quadrant_control_mode "CONSTANT_PF";
	pf_reg "EXCLUDED";
	generator_status "ONLINE";
	generator_mode "SUPPLY_DRIVEN";
	inverter_convergence_criterion "+0.001";
	V_In "+27.13+0j V";
	Vdc "+480 V";
	phaseA_V_Out "+215.997-0.000758577d V";
	phaseB_V_Out "+107.998-0.000767443d V";
	phaseC_V_Out "+107.999-0.00074971d V";
	rated_power "+30000 VA";
	rated_battery_power "+31578.9 W";
	inverter_efficiency "+0.95";
	battery_soc "-1 pu";
	power_factor "+1 unit";
	nominal_frequency "+60 Hz";
	R_fp "+0.0001";
	VSI_Rfilter "+0.03+0.3i pu";
	VSI_Xfilter "+0.3+5.18769e-322i pu";
	VSI_freq "+60";
	ki_Vterminal "+0.01";
	kp_Vterminal "+0.1";
	max_ramp_up_real "+1e+09 W/s";
	max_ramp_down_real "+1e+09 W/s";
	max_ramp_up_reactive "+1e+09 VAr/s";
	max_ramp_down_reactive "+1e+09 VAr/s";
	dynamic_model_mode "PI";
	reconnect_time "+300 s";
	inverter_1547_status "TRUE";
	IEEE_1547_version "IEEE1547A";
	over_freq_high_cutout "+62 Hz";
	over_freq_high_disconenct_time "+0.16 s";
	over_freq_low_cutout "+60.5 Hz";
	over_freq_low_disconenct_time "+2 s";
	under_freq_high_cutout "+59.5 Hz";
	under_freq_high_disconenct_time "+2 s";
	under_freq_low_cutout "+57 Hz";
	under_freq_low_disconenct_time "+0.16 s";
	under_voltage_low_cutout "+0.45 pu";
	under_voltage_middle_cutout "+0.6 pu";
	under_voltage_high_cutout "+0.88 pu";
	over_voltage_low_cutout "+1.1 pu";
	over_voltage_high_cutout "+1.2 pu";
	under_voltage_low_disconnect_time "+0.16 s";
	under_voltage_middle_disconnect_time "+1 s";
	under_voltage_high_disconnect_time "+2 s";
	over_voltage_low_disconnect_time "+1 s";
	over_voltage_high_disconnect_time "+0.16 s";
	phases "SA";
	maximum_dc_power "-1";
	maximum_dc_voltage "-1";
	minimum_dc_power "-1";
	c_0 "-1";
	c_1 "-1";
	c_2 "-1";
	c_3 "-1";
	pf_reg_activate "-2";
	pf_reg_deactivate "-1";
	pf_target "-2";
	pf_reg_high "-2";
	pf_reg_low "-2";
	pf_reg_activate_lockout_time "-1 s";
	delay_time "-1 s";
	charge_threshold "-1 W";
	discharge_threshold "-1 W";
	group_max_charge_rate "-1 W";
	group_max_discharge_rate "-1 W";
	group_rated_power "-1 W";
	V1 "-2 pu";
	Q1 "-2 pu";
	V2 "-2 pu";
	Q2 "-2 pu";
	V3 "-2 pu";
	Q3 "-2 pu";
	V4 "-2 pu";
	Q4 "-2 pu";
	volt_var_control_lockout "-1 s";
}
object generators.solar {
	parent "PV_inverter_1";
	name "PV_1";
	guid "3960D12032199D7A4ABC45CE3CDD3C18";
	generator_mode "SUPPLY_DRIVEN";
	generator_status "ONLINE";
	panel_type "SINGLE_CRYSTAL_SILICON";
	SOLAR_TILT_MODEL "SOLPOS";
	SOLAR_POWER_MODEL "FLATPLATE";
	a_coeff "-2.81";
	b_coeff "-0.0455 s/m";
	T_coeff "-0.5 %/degC";
	NOCT "+118.4 degF";
	Tmodule "+67.4654 degF";
	Tambient "+19.703 degC";
	wind_speed "+1.80382 mph";
	ambient_temperature "+67.4689 degF";
	Rinternal "+0.05 Ohm";
	Rated_Insolation "+92.902 W/sf";
	Pmax_temp_coeff "-0.00012929";
	Voc_temp_coeff "-0.000116272";
	V_Max "+27.1+0j V";
	Voc_Max "+34+0j V";
	Voc "+34.0377+0j V";
	efficiency "+0.135 unit";
	area "+150.763 sf";
	soiling "+0.95 pu";
	derating "+0.95 pu";
	Tcell "+19.703 degC";
	Rated_kVA "+1.89083 kVA";
	rated_power "+1890.83 W";
	V_Out "+27.13+0j V";
	weather "weather";
	shading_factor "+1 pu";
	tilt_angle "+45 deg";
	latitude "NAN deg";
	longitude "NAN deg";
	orientation "FIXED_AXIS";
	phases "SB";
}
object generators.inverter {
	parent "meter_1";
	name "Bat_inverter_1";
	guid "75A413EA04000F5A4D67BD7B4B89CEBE";
	inverter_type "FOUR_QUADRANT";
	four_quadrant_control_mode "CONSTANT_PQ";
	pf_reg "EXCLUDED";
	generator_status "ONLINE";
	inverter_convergence_criterion "+0.001";
	Vdc "+480 V";
	phaseA_V_Out "+215.997-0.000758577d V";
	phaseB_V_Out "+107.998-0.000767443d V";
	phaseC_V_Out "+107.999-0.00074971d V";
	rated_power "+8000 VA";
	rated_battery_power "+8421.05 W";
	inverter_efficiency "+0.95";
	battery_soc "+1 pu";
	power_factor "+1 unit";
	nominal_frequency "+60 Hz";
	R_fp "+0.0001";
	VSI_Rfilter "+0.03+0.3i pu";
	VSI_Xfilter "+0.3+5.18769e-322i pu";
	VSI_freq "+60";
	ki_Vterminal "+0.01";
	kp_Vterminal "+0.1";
	max_ramp_up_real "+1e+09 W/s";
	max_ramp_down_real "+1e+09 W/s";
	max_ramp_up_reactive "+1e+09 VAr/s";
	max_ramp_down_reactive "+1e+09 VAr/s";
	dynamic_model_mode "PI";
	reconnect_time "+300 s";
	inverter_1547_status "TRUE";
	IEEE_1547_version "IEEE1547A";
	over_freq_high_cutout "+62 Hz";
	over_freq_high_disconenct_time "+0.16 s";
	over_freq_low_cutout "+60.5 Hz";
	over_freq_low_disconenct_time "+2 s";
	under_freq_high_cutout "+59.5 Hz";
	under_freq_high_disconenct_time "+2 s";
	under_freq_low_cutout "+57 Hz";
	under_freq_low_disconenct_time "+0.16 s";
	under_voltage_low_cutout "+0.45 pu";
	under_voltage_middle_cutout "+0.6 pu";
	under_voltage_high_cutout "+0.88 pu";
	over_voltage_low_cutout "+1.1 pu";
	over_voltage_high_cutout "+1.2 pu";
	under_voltage_low_disconnect_time "+0.16 s";
	under_voltage_middle_disconnect_time "+1 s";
	under_voltage_high_disconnect_time "+2 s";
	over_voltage_low_disconnect_time "+1 s";
	over_voltage_high_disconnect_time "+0.16 s";
	phases "SA";
	maximum_dc_power "-1";
	maximum_dc_voltage "-1";
	minimum_dc_power "-1";
	c_0 "-1";
	c_1 "-1";
	c_2 "-1";
	c_3 "-1";
	pf_reg_activate "-2";
	pf_reg_deactivate "-1";
	pf_target "-2";
	pf_reg_high "-2";
	pf_reg_low "-2";
	pf_reg_activate_lockout_time "-1 s";
	delay_time "-1 s";
	charge_threshold "-1 W";
	discharge_threshold "-1 W";
	group_max_charge_rate "-1 W";
	group_max_discharge_rate "-1 W";
	group_rated_power "-1 W";
	V1 "-2 pu";
	Q1 "-2 pu";
	V2 "-2 pu";
	Q2 "-2 pu";
	V3 "-2 pu";
	Q3 "-2 pu";
	V4 "-2 pu";
	Q4 "-2 pu";
	volt_var_control_lockout "-1 s";
}
object generators.battery {
	parent "Bat_inverter_1";
	name "Battery_1";
	guid "28B17A41C49CA4DA69DECDFA6FA0A06D";
	generator_mode "CONSTANT_PQ";
	generator_status "ONLINE";
	power_type "DC";
	battery_state "FULL";
	sensitivity "+0.5";
	high_temperature "+100";
	midpoint_temperature "+50";
	Rinternal "+10 Ohm";
	V_Max "+260 V";
	I_Max "+15+0i A";
	E_Max "+50000 Wh";
	power_factor "+1";
	Energy "-1 Wh";
	base_efficiency "+0.95 unit";
	Rated_kVA "+1 kVA";
	use_internal_battery_model "TRUE";
	battery_type "LI_ION";
	nominal_voltage "+115 V";
	rated_power "+8421.05 W";
	battery_capacity "+50000 Wh";
	round_trip_efficiency "+0.8 pu";
	state_of_charge "+1 pu";
	charging_type "";
	k "+0.2";
	est_departure "";
	top_on "+0";
}
object powerflow.triplex_meter {
	parent "node_1A";
	name "meter_2";
	guid "4E86F939E60A175121BD44FE4634DF5A";
	measured_real_energy "+5583.34 Wh";
	measured_reactive_energy "+6981.93 VAh";
	measured_energy_delta_timestep "-1 s";
	measured_power "+435.761+22.8288d VA";
	indiv_measured_power_1 "+148.449+16.4356d VA";
	indiv_measured_power_2 "+259.243+127.065j VA";
	measured_demand "+3406.68 W";
	measured_real_power "+401.627 W";
	measured_reactive_power "+169.066 VAr";
	measured_voltage_1 "+107.999-0.00074971d V";
	measured_voltage_2 "+107.998-0.000767443d V";
	measured_voltage_12 "+215.997-0.000758577d V";
	measured_current_1 "+1.31838-0.388928j A";
	measured_current_2 "-2.40043+1.17657j A";
	measured_current_N "+1.08205-0.787647j A";
	bill_day "15";
	// class.parent = powerflow.triplex_node
	busflags "HASSOURCE";
	maximum_voltage_error "+0.00012 V";
	voltage_1 "+107.999-0.00074971d V";
	voltage_2 "+107.998-0.000767443d V";
	voltage_12 "+215.997-0.000758577d V";
	voltage_1N "+107.999-0.00074971d V";
	voltage_2N "+107.998-0.000767443d V";
	power_12 "-3.41061e-13+0i VA";
	power_12_real "-3.41061e-13 W";
	house_present "TRUE";
	GFA_freq_low_trip "+59.5 Hz";
	GFA_freq_high_trip "+60.5 Hz";
	GFA_volt_low_trip "+0.8 pu";
	GFA_volt_high_trip "+1.2 pu";
	GFA_reconnect_time "+300 s";
	GFA_freq_disconnect_time "+0.2 s";
	GFA_volt_disconnect_time "+0.2 s";
	GFA_status "TRUE";
	service_status "IN_SERVICE";
	service_status_double "-1";
	previous_uptime "-1 min";
	current_uptime "+725 min";
	topological_parent "node_1A";
	frequency_measure_type "NONE";
	sfm_Tf "+0.01 s";
	pll_Kp "+10 pu";
	pll_Ki "+100 pu";
	measured_frequency_1 "+60 Hz";
	measured_frequency_2 "+60 Hz";
	measured_frequency_12 "+60 Hz";
	measured_frequency "+60 Hz";
	// class.parent = powerflow.powerflow_object
	phases "AS";
	nominal_voltage "+120 V";
}
object residential.house {
	parent "meter_2";
	name "house_2";
	guid "374BC27B55FC7D3E3A667504726B7267";
	weather "weather";
	floor_area "+1032.28 sf";
	gross_wall_area "+1049.33 sf";
	ceiling_height "+8 ft";
	aspect_ratio "+1.5";
	envelope_UA "+213.748 Btu/degF/h";
	window_wall_ratio "+0.15";
	number_of_doors "+4";
	exterior_wall_fraction "+1";
	interior_exterior_wall_ratio "+1.5";
	exterior_ceiling_fraction "+1";
	exterior_floor_fraction "+1";
	window_shading "+0.67";
	window_exterior_transmission_coefficient "+0.6";
	airchange_per_hour "+0.5 unit/h";
	airchange_UA "+72.8984 Btu/degF/h";
	UA "+286.646 Btu/degF/h";
	internal_gain "+1463.3 Btu/h";
	include_solar_quadrant "W|S|E|N";
	use_latent_heat "TRUE";
	include_fan_heatgain "TRUE";
	thermostat_deadband "+2 degF";
	thermostat_cycle_time "120";
	thermostat_off_cycle_time "-1";
	thermostat_on_cycle_time "-1";
	heating_setpoint "+65 degF";
	cooling_setpoint "+76 degF";
	design_heating_setpoint "+70 degF";
	design_cooling_setpoint "+75 degF";
	window_low_temperature_cutoff "+60 degF";
	window_high_temperature_cutoff "+80 degF";
	window_constant_coefficient "+1";
	window_temperature_delta "+5";
	design_heating_capacity "+30000 Btu/h";
	design_cooling_capacity "+30000 Btu/h";
	cooling_design_temperature "+87.082 degF";
	heating_design_temperature "+41.002 degF";
	design_peak_solar "+195 Btu/h/sf";
	design_internal_gains "+3589.62 W/sf";
	mass_solar_gain_fraction "+0.5 pu";
	mass_internal_gain_fraction "+0.5 pu";
	auxiliary_heat_capacity "+10000 Btu/h";
	aux_heat_deadband "+2 degF";
	aux_heat_temperature_lockout "+10 degF";
	aux_heat_time_delay "+300 s";
	cooling_supply_air_temp "+50 degF";
	heating_supply_air_temp "+150 degF";
	duct_pressure_drop "+0.5 inH2O";
	fan_design_power "+211.847 W";
	fan_design_airflow "+871.418 cfm";
	fan_impedance_fraction "+0.2534 pu";
	fan_power_fraction "+0.0135 pu";
	fan_current_fraction "+0.7332 pu";
	fan_power_factor "+0.96 pu";
	heating_COP "+2.5 pu";
	cooling_COP "+3.5 Btu/kWh";
	air_temperature "+76.2982 degF";
	outdoor_temperature "+67.4689 degF";
	outdoor_rh "+86.2708 %";
	mass_heat_capacity "+1772.97 Btu/degF";
	mass_heat_coeff "+4993.51 Btu/degF/h";
	mass_temperature "+76.6097 degF";
	air_volume "+8258.24 cf";
	air_mass "+606.981 lb";
	air_heat_capacity "+437.39 Btu/degF";
	latent_load_fraction "+0.3 pu";
	total_thermal_mass_per_floor_area "+2 Btu/degF/sf";
	interior_surface_heat_transfer_coeff "+1.46 Btu/h/degF/sf";
	number_of_stories "+1";
	thermostat_mode "AUTO";
	auxiliary_strategy "DEADBAND";
	system_mode "OFF";
	last_system_mode "OFF";
	heating_system_type "HEAT_PUMP";
	cooling_system_type "HEAT_PUMP";
	auxiliary_system_type "ELECTRIC";
	fan_type "ONE_SPEED";
	thermal_integrity_level "GOOD";
	glass_type "LOW_E_GLASS";
	window_frame "THERMAL_BREAK";
	glazing_treatment "CLEAR";
	glazing_layers "TWO";
	motor_efficiency "AVERAGE";
	last_mode_timer "21600";
	hvac_motor_efficiency "+1 unit";
	hvac_motor_loss_power_factor "+0.125 unit";
	Rroof "+30 degF*sf*h/Btu";
	Rwall "+19 degF*sf*h/Btu";
	Rfloor "+22 degF*sf*h/Btu";
	Rwindows "+2.12766 degF*sf*h/Btu";
	Rdoors "+5 degF*sf*h/Btu";
	hvac_breaker_rating "+200 A";
	hvac_power_factor "+0.75 unit";
	last_cooling_load "+2.21478 kW";
	total_load "+0.453358 kW";
	panel "power_factor: 0; "power.real": 0.323358; "power.imag": 0.146283";
	panel.energy "+12.5884+3.79321i kVAh";
	panel.power "+0.418611+0.174066j kVA";
	panel.peak_demand "+0+0i kVA";
	panel.heatgain "+1463.3 Btu/h";
	panel.cumulative_heatgain "-10262.9 Btu";
	panel.heatgain_fraction "+0 pu";
	panel.current_fraction "+0 pu";
	panel.impedance_fraction "+0 pu";
	panel.power_fraction "+0 pu";
	panel.power_factor "+0";
	panel.constant_power "+0.323358+0.146283j kVA";
	panel.constant_current "+0.0124025+0.00310837j kVA";
	panel.constant_admittance "+0.0828503+0.0246747j kVA";
	panel.voltage_factor "+0 pu";
	panel.breaker_amps "+0 A";
	panel.configuration "IS110";
	design_internal_gain_density "+0.6 W/sf";
	compressor_count "18";
	hvac_last_on "2016-07-31 18:25:00 UTC";
	hvac_last_off "2016-07-31 18:30:00 UTC";
	hvac_period_length "+25 s";
	hvac_duty_cycle "+0.2";
	gas_enduses "WATERHEATER|RANGE|DRYER";
	alpha "+0.00044975";
	beta "+0.92939";
	gamma_cool "+7.50837";
	gamma_heat "+1.85292";
	comf_temperature "+75.6329";
	T_max "+72";
	T_min "+60";
	// class.parent = residential.residential_enduse
	shape "type: unknown";
	load "impedance_fraction: 0.200000; power_fraction: 0.800000; power_factor: 0.75; "power.real": 0";
	energy "+3.94121+0i kVAh";
	power "+0+0j kVA";
	peak_demand "+0+0i kVA";
	heatgain "+0 Btu/h";
	cumulative_heatgain "-37405.3 Btu";
	heatgain_fraction "+0 pu";
	current_fraction "+0 pu";
	impedance_fraction "+0.2 pu";
	power_fraction "+0.8 pu";
	power_factor "+0.75";
	constant_power "+0+0j kVA";
	constant_current "+0+0j kVA";
	constant_admittance "+0+0j kVA";
	voltage_factor "+0.899987 pu";
	breaker_amps "+200 A";
	configuration "IS220";
}
object residential.ZIPload {
	parent "house_2";
	name "zip_GLD_2";
	guid "410F8DB9ACDAEC975C434D8288F2EEF";
	base_power "+0.01 kW";
	power_pf "+0.9";
	current_pf "+0.9";
	impedance_pf "+0.9";
	breaker_val "+1000 A";
	actual_power "+0.00904987+0.00438305j kVA";
	multiplier "+1";
	rate_of_cooling "-1 K/h";
	rate_of_heating "-1 K/h";
	phi "+0.2";
	demand_rate "+0.2 1/h";
	duty_cycle "-1 pu";
	recovery_duty_cycle "-1 pu";
	// class.parent = residential.residential_enduse
	shape "type: unknown";
	load "impedance_fraction: 0.500000; power_fraction: 0.500000; power_factor: 0.9; "power.real": 0.005; "power.imag": 0.002422";
	energy "+1.89+0.915369i kVAh";
	power "+0.01+0.00484322j kVA";
	peak_demand "+0+0i kVA";
	heatgain "+0 Btu/h";
	cumulative_heatgain "+0 Btu";
	heatgain_fraction "+0 pu";
	current_fraction "+0 pu";
	impedance_fraction "+0.5 pu";
	power_fraction "+0.5 pu";
	power_factor "+0.9";
	constant_power "+0.005+0.00242161j kVA";
	constant_current "+0+0j kVA";
	constant_admittance "+0.005+0.00242161j kVA";
	voltage_factor "+0.899985 pu";
	breaker_amps "+1000 A";
	configuration "IS110";
	power_state "UNKNOWN";
}
object generators.inverter {
	parent "meter_2";
	name "PV_inverter_2";
	guid "B89663C049A9DBC4D09F31B01103ED5";
	inverter_type "FOUR_QUADRANT";
	four_quadrant_control_mode "CONSTANT_PF";
	pf_reg "EXCLUDED";
	generator_status "ONLINE";
	generator_mode "SUPPLY_DRIVEN";
	inverter_convergence_criterion "+0.001";
	V_In "+27.13+0j V";
	Vdc "+480 V";
	phaseA_V_Out "+215.997-0.000758577d V";
	phaseB_V_Out "+107.998-0.000767443d V";
	phaseC_V_Out "+107.999-0.00074971d V";
	rated_power "+30000 VA";
	rated_battery_power "+31578.9 W";
	inverter_efficiency "+0.95";
	battery_soc "-1 pu";
	power_factor "+1 unit";
	nominal_frequency "+60 Hz";
	R_fp "+0.0001";
	VSI_Rfilter "+0.03+0.3i pu";
	VSI_Xfilter "+0.3+5.18769e-322i pu";
	VSI_freq "+60";
	ki_Vterminal "+0.01";
	kp_Vterminal "+0.1";
	max_ramp_up_real "+1e+09 W/s";
	max_ramp_down_real "+1e+09 W/s";
	max_ramp_up_reactive "+1e+09 VAr/s";
	max_ramp_down_reactive "+1e+09 VAr/s";
	dynamic_model_mode "PI";
	reconnect_time "+300 s";
	inverter_1547_status "TRUE";
	IEEE_1547_version "IEEE1547A";
	over_freq_high_cutout "+62 Hz";
	over_freq_high_disconenct_time "+0.16 s";
	over_freq_low_cutout "+60.5 Hz";
	over_freq_low_disconenct_time "+2 s";
	under_freq_high_cutout "+59.5 Hz";
	under_freq_high_disconenct_time "+2 s";
	under_freq_low_cutout "+57 Hz";
	under_freq_low_disconenct_time "+0.16 s";
	under_voltage_low_cutout "+0.45 pu";
	under_voltage_middle_cutout "+0.6 pu";
	under_voltage_high_cutout "+0.88 pu";
	over_voltage_low_cutout "+1.1 pu";
	over_voltage_high_cutout "+1.2 pu";
	under_voltage_low_disconnect_time "+0.16 s";
	under_voltage_middle_disconnect_time "+1 s";
	under_voltage_high_disconnect_time "+2 s";
	over_voltage_low_disconnect_time "+1 s";
	over_voltage_high_disconnect_time "+0.16 s";
	phases "SA";
	maximum_dc_power "-1";
	maximum_dc_voltage "-1";
	minimum_dc_power "-1";
	c_0 "-1";
	c_1 "-1";
	c_2 "-1";
	c_3 "-1";
	pf_reg_activate "-2";
	pf_reg_deactivate "-1";
	pf_target "-2";
	pf_reg_high "-2";
	pf_reg_low "-2";
	pf_reg_activate_lockout_time "-1 s";
	delay_time "-1 s";
	charge_threshold "-1 W";
	discharge_threshold "-1 W";
	group_max_charge_rate "-1 W";
	group_max_discharge_rate "-1 W";
	group_rated_power "-1 W";
	V1 "-2 pu";
	Q1 "-2 pu";
	V2 "-2 pu";
	Q2 "-2 pu";
	V3 "-2 pu";
	Q3 "-2 pu";
	V4 "-2 pu";
	Q4 "-2 pu";
	volt_var_control_lockout "-1 s";
}
object generators.solar {
	parent "PV_inverter_2";
	name "PV_2";
	guid "15D75C5A37D4B56BD72BDB8D37BC57D";
	generator_mode "SUPPLY_DRIVEN";
	generator_status "ONLINE";
	panel_type "SINGLE_CRYSTAL_SILICON";
	SOLAR_TILT_MODEL "SOLPOS";
	SOLAR_POWER_MODEL "FLATPLATE";
	a_coeff "-2.81";
	b_coeff "-0.0455 s/m";
	T_coeff "-0.5 %/degC";
	NOCT "+118.4 degF";
	Tmodule "+67.4654 degF";
	Tambient "+19.703 degC";
	wind_speed "+1.80382 mph";
	ambient_temperature "+67.4689 degF";
	Rinternal "+0.05 Ohm";
	Rated_Insolation "+92.902 W/sf";
	Pmax_temp_coeff "-0.00012929";
	Voc_temp_coeff "-0.000116272";
	V_Max "+27.1+0j V";
	Voc_Max "+34+0j V";
	Voc "+34.0377+0j V";
	efficiency "+0.135 unit";
	area "+231.995 sf";
	soiling "+0.95 pu";
	derating "+0.95 pu";
	Tcell "+19.703 degC";
	Rated_kVA "+2.90962 kVA";
	rated_power "+2909.62 W";
	V_Out "+27.13+0j V";
	weather "weather";
	shading_factor "+1 pu";
	tilt_angle "+45 deg";
	latitude "NAN deg";
	longitude "NAN deg";
	orientation "FIXED_AXIS";
	phases "SB";
}
object generators.inverter {
	parent "meter_2";
	name "Bat_inverter_2";
	guid "36417AF848CEFEC437021D6F597937B8";
	inverter_type "FOUR_QUADRANT";
	four_quadrant_control_mode "CONSTANT_PQ";
	pf_reg "EXCLUDED";
	generator_status "ONLINE";
	inverter_convergence_criterion "+0.001";
	Vdc "+480 V";
	phaseA_V_Out "+215.997-0.000758577d V";
	phaseB_V_Out "+107.998-0.000767443d V";
	phaseC_V_Out "+107.999-0.00074971d V";
	rated_power "+8000 VA";
	rated_battery_power "+8421.05 W";
	inverter_efficiency "+0.95";
	battery_soc "+1 pu";
	power_factor "+1 unit";
	nominal_frequency "+60 Hz";
	R_fp "+0.0001";
	VSI_Rfilter "+0.03+0.3i pu";
	VSI_Xfilter "+0.3+5.18769e-322i pu";
	VSI_freq "+60";
	ki_Vterminal "+0.01";
	kp_Vterminal "+0.1";
	max_ramp_up_real "+1e+09 W/s";
	max_ramp_down_real "+1e+09 W/s";
	max_ramp_up_reactive "+1e+09 VAr/s";
	max_ramp_down_reactive "+1e+09 VAr/s";
	dynamic_model_mode "PI";
	reconnect_time "+300 s";
	inverter_1547_status "TRUE";
	IEEE_1547_version "IEEE1547A";
	over_freq_high_cutout "+62 Hz";
	over_freq_high_disconenct_time "+0.16 s";
	over_freq_low_cutout "+60.5 Hz";
	over_freq_low_disconenct_time "+2 s";
	under_freq_high_cutout "+59.5 Hz";
	under_freq_high_disconenct_time "+2 s";
	under_freq_low_cutout "+57 Hz";
	under_freq_low_disconenct_time "+0.16 s";
	under_voltage_low_cutout "+0.45 pu";
	under_voltage_middle_cutout "+0.6 pu";
	under_voltage_high_cutout "+0.88 pu";
	over_voltage_low_cutout "+1.1 pu";
	over_voltage_high_cutout "+1.2 pu";
	under_voltage_low_disconnect_time "+0.16 s";
	under_voltage_middle_disconnect_time "+1 s";
	under_voltage_high_disconnect_time "+2 s";
	over_voltage_low_disconnect_time "+1 s";
	over_voltage_high_disconnect_time "+0.16 s";
	phases "SA";
	maximum_dc_power "-1";
	maximum_dc_voltage "-1";
	minimum_dc_power "-1";
	c_0 "-1";
	c_1 "-1";
	c_2 "-1";
	c_3 "-1";
	pf_reg_activate "-2";
	pf_reg_deactivate "-1";
	pf_target "-2";
	pf_reg_high "-2";
	pf_reg_low "-2";
	pf_reg_activate_lockout_time "-1 s";
	delay_time "-1 s";
	charge_threshold "-1 W";
	discharge_threshold "-1 W";
	group_max_charge_rate "-1 W";
	group_max_discharge_rate "-1 W";
	group_rated_power "-1 W";
	V1 "-2 pu";
	Q1 "-2 pu";
	V2 "-2 pu";
	Q2 "-2 pu";
	V3 "-2 pu";
	Q3 "-2 pu";
	V4 "-2 pu";
	Q4 "-2 pu";
	volt_var_control_lockout "-1 s";
}
object generators.battery {
	parent "Bat_inverter_2";
	name "Battery_2";
	guid "5BF5610DB058FB5E1D42A54A59DB8FE3";
	generator_mode "CONSTANT_PQ";
	generator_status "ONLINE";
	power_type "DC";
	battery_state "FULL";
	sensitivity "+0.5";
	high_temperature "+100";
	midpoint_temperature "+50";
	Rinternal "+10 Ohm";
	V_Max "+260 V";
	I_Max "+15+0i A";
	E_Max "+50000 Wh";
	power_factor "+1";
	Energy "-1 Wh";
	base_efficiency "+0.95 unit";
	Rated_kVA "+1 kVA";
	use_internal_battery_model "TRUE";
	battery_type "LI_ION";
	nominal_voltage "+115 V";
	rated_power "+8421.05 W";
	battery_capacity "+50000 Wh";
	round_trip_efficiency "+0.8 pu";
	state_of_charge "+1 pu";
	charging_type "";
	k "+0.2";
	est_departure "";
	top_on "+0";
}
object powerflow.transformer {
	name "xfrm_1B";
	guid "ACBDF1C54FF3CFF4A06162F1B87A2BF";
	configuration "xfmr_config_B";
	// class.parent = powerflow.link
	status "CLOSED";
	from "main_node_B";
	to "node_1B";
	power_in "+851.451+22.7584d VA";
	power_out "+851.44+22.7577d VA";
	power_out_real "+785.154 W";
	power_losses "+0.00644877+0.0132259j VA";
	power_in_B "+851.451+22.7584d VA";
	power_out_A "+296.899+16.4356d VA";
	power_out_B "+500.387+245.363j VA";
	power_losses_B "+0.0147143+64.0068d VA";
	current_out_A "+2.7491-136.436d A";
	current_out_B "+5.16032+33.8784d A";
	current_out_C "+2.49367-156.81d A";
	current_in_B "+0.0379319-142.758d A";
	flow_direction "CN|BF|AR";
	continuous_rating "+1000 A";
	emergency_rating "+1000 A";
	inrush_convergence_value "+0.0001 V";
	// class.parent = powerflow.powerflow_object
	phases "BS";
	nominal_voltage "+24941 V";
}
object powerflow.triplex_node {
	name "node_1B";
	guid "101F8BEE9CA743F622AF645E0898569";
	busflags "HASSOURCE";
	maximum_voltage_error "+0.00012 V";
	voltage_1 "+107.999-120.001d V";
	voltage_2 "+107.998-120.001d V";
	voltage_12 "+215.997-120.001d V";
	voltage_1N "+107.999-120.001d V";
	voltage_2N "+107.998-120.001d V";
	power_12 "-5.06262e-13-2.27374e-13i VA";
	power_12_real "-5.06262e-13 W";
	power_12_reac "-2.27374e-13 VAr";
	house_present "TRUE";
	GFA_freq_low_trip "+59.5 Hz";
	GFA_freq_high_trip "+60.5 Hz";
	GFA_volt_low_trip "+0.8 pu";
	GFA_volt_high_trip "+1.2 pu";
	GFA_reconnect_time "+300 s";
	GFA_freq_disconnect_time "+0.2 s";
	GFA_volt_disconnect_time "+0.2 s";
	GFA_status "TRUE";
	service_status "IN_SERVICE";
	service_status_double "-1";
	previous_uptime "-1 min";
	current_uptime "+725 min";
	frequency_measure_type "NONE";
	sfm_Tf "+0.01 s";
	pll_Kp "+10 pu";
	pll_Ki "+100 pu";
	measured_frequency_1 "+60 Hz";
	measured_frequency_2 "+60 Hz";
	measured_frequency_12 "+60 Hz";
	measured_frequency "+60 Hz";
	// class.parent = powerflow.powerflow_object
	phases "BS";
	nominal_voltage "+120 V";
}
object powerflow.triplex_meter {
	parent "node_1B";
	name "meter_3";
	guid "7700AA1A7586986C4C507C8A2916073B";
	measured_real_energy "+5672.5 Wh";
	measured_reactive_energy "+7696.88 VAh";
	measured_energy_delta_timestep "-1 s";
	measured_power "+425.72+22.7577d VA";
	indiv_measured_power_1 "+148.449+16.4356d VA";
	indiv_measured_power_2 "+250.194+122.681j VA";
	measured_demand "+2920.64 W";
	measured_real_power "+392.577 W";
	measured_reactive_power "+164.683 VAr";
	measured_voltage_1 "+107.999-120.001d V";
	measured_voltage_2 "+107.998-120.001d V";
	measured_voltage_12 "+215.997-120.001d V";
	measured_current_1 "-0.996009-0.947284j A";
	measured_current_2 "+2.14211+1.43826j A";
	measured_current_N "-1.1461-0.49098j A";
	bill_day "15";
	// class.parent = powerflow.triplex_node
	busflags "HASSOURCE";
	maximum_voltage_error "+0.00012 V";
	voltage_1 "+107.999-120.001d V";
	voltage_2 "+107.998-120.001d V";
	voltage_12 "+215.997-120.001d V";
	voltage_1N "+107.999-120.001d V";
	voltage_2N "+107.998-120.001d V";
	house_present "TRUE";
	GFA_freq_low_trip "+59.5 Hz";
	GFA_freq_high_trip "+60.5 Hz";
	GFA_volt_low_trip "+0.8 pu";
	GFA_volt_high_trip "+1.2 pu";
	GFA_reconnect_time "+300 s";
	GFA_freq_disconnect_time "+0.2 s";
	GFA_volt_disconnect_time "+0.2 s";
	GFA_status "TRUE";
	service_status "IN_SERVICE";
	service_status_double "-1";
	previous_uptime "-1 min";
	current_uptime "+725 min";
	topological_parent "node_1B";
	frequency_measure_type "NONE";
	sfm_Tf "+0.01 s";
	pll_Kp "+10 pu";
	pll_Ki "+100 pu";
	measured_frequency_1 "+60 Hz";
	measured_frequency_2 "+60 Hz";
	measured_frequency_12 "+60 Hz";
	measured_frequency "+60 Hz";
	// class.parent = powerflow.powerflow_object
	phases "BS";
	nominal_voltage "+120 V";
}
object residential.house {
	parent "meter_3";
	name "house_3";
	guid "6915D162C18736BE49A2B0527E6E63E8";
	weather "weather";
	floor_area "+1451.47 sf";
	gross_wall_area "+1244.28 sf";
	ceiling_height "+8 ft";
	aspect_ratio "+1.5";
	envelope_UA "+269.24 Btu/degF/h";
	window_wall_ratio "+0.15";
	number_of_doors "+4";
	exterior_wall_fraction "+1";
	interior_exterior_wall_ratio "+1.5";
	exterior_ceiling_fraction "+1";
	exterior_floor_fraction "+1";
	window_shading "+0.67";
	window_exterior_transmission_coefficient "+0.6";
	airchange_per_hour "+0.5 unit/h";
	airchange_UA "+102.501 Btu/degF/h";
	UA "+371.741 Btu/degF/h";
	internal_gain "+1463.3 Btu/h";
	include_solar_quadrant "W|S|E|N";
	use_latent_heat "TRUE";
	include_fan_heatgain "TRUE";
	thermostat_deadband "+2 degF";
	thermostat_cycle_time "120";
	thermostat_off_cycle_time "-1";
	thermostat_on_cycle_time "-1";
	heating_setpoint "+65 degF";
	cooling_setpoint "+76 degF";
	design_heating_setpoint "+70 degF";
	design_cooling_setpoint "+75 degF";
	window_low_temperature_cutoff "+60 degF";
	window_high_temperature_cutoff "+80 degF";
	window_constant_coefficient "+1";
	window_temperature_delta "+5";
	design_heating_capacity "+36000 Btu/h";
	design_cooling_capacity "+36000 Btu/h";
	cooling_design_temperature "+87.082 degF";
	heating_design_temperature "+41.002 degF";
	design_peak_solar "+195 Btu/h/sf";
	design_internal_gains "+4173.2 W/sf";
	mass_solar_gain_fraction "+0.5 pu";
	mass_internal_gain_fraction "+0.5 pu";
	auxiliary_heat_capacity "+20000 Btu/h";
	aux_heat_deadband "+2 degF";
	aux_heat_temperature_lockout "+10 degF";
	aux_heat_time_delay "+300 s";
	cooling_supply_air_temp "+50 degF";
	heating_supply_air_temp "+150 degF";
	duct_pressure_drop "+0.5 inH2O";
	fan_design_power "+211.847 W";
	fan_design_airflow "+1045.7 cfm";
	fan_impedance_fraction "+0.2534 pu";
	fan_power_fraction "+0.0135 pu";
	fan_current_fraction "+0.7332 pu";
	fan_power_factor "+0.96 pu";
	heating_COP "+2.5 pu";
	cooling_COP "+3.5 Btu/kWh";
	air_temperature "+75.392 degF";
	outdoor_temperature "+67.4689 degF";
	outdoor_rh "+86.2708 %";
	mass_heat_capacity "+2492.93 Btu/degF";
	mass_heat_coeff "+6274.39 Btu/degF/h";
	mass_temperature "+75.6925 degF";
	air_volume "+11611.8 cf";
	air_mass "+853.464 lb";
	air_heat_capacity "+615.006 Btu/degF";
	latent_load_fraction "+0.3 pu";
	total_thermal_mass_per_floor_area "+2 Btu/degF/sf";
	interior_surface_heat_transfer_coeff "+1.46 Btu/h/degF/sf";
	number_of_stories "+1";
	thermostat_mode "AUTO";
	auxiliary_strategy "DEADBAND";
	system_mode "OFF";
	last_system_mode "OFF";
	heating_system_type "HEAT_PUMP";
	cooling_system_type "HEAT_PUMP";
	auxiliary_system_type "ELECTRIC";
	fan_type "ONE_SPEED";
	thermal_integrity_level "GOOD";
	glass_type "LOW_E_GLASS";
	window_frame "THERMAL_BREAK";
	glazing_treatment "CLEAR";
	glazing_layers "TWO";
	motor_efficiency "AVERAGE";
	last_mode_timer "21600";
	hvac_motor_efficiency "+1 unit";
	hvac_motor_loss_power_factor "+0.125 unit";
	Rroof "+30 degF*sf*h/Btu";
	Rwall "+19 degF*sf*h/Btu";
	Rfloor "+22 degF*sf*h/Btu";
	Rwindows "+2.12766 degF*sf*h/Btu";
	Rdoors "+5 degF*sf*h/Btu";
	hvac_breaker_rating "+200 A";
	hvac_power_factor "+0.75 unit";
	last_cooling_load "+2.61112 kW";
	total_load "+0.442266 kW";
	panel "power_factor: 0; "power.real": 0.318358; "power.imag": 0.143861";
	panel.energy "+12.8592+3.23221i kVAh";
	panel.power "+0.408611+0.169223j kVA";
	panel.peak_demand "+0+0i kVA";
	panel.heatgain "+1463.3 Btu/h";
	panel.cumulative_heatgain "-24921.6 Btu";
	panel.heatgain_fraction "+0 pu";
	panel.current_fraction "+0 pu";
	panel.impedance_fraction "+0 pu";
	panel.power_fraction "+0 pu";
	panel.power_factor "+0";
	panel.constant_power "+0.318358+0.143861j kVA";
	panel.constant_current "+0.0124025+0.00310837j kVA";
...